Data_30.m
global busdata30
%             bno   btype   V       del     Pg       Qg          Pd      Qd          ShuntCap
busdata30 =  [1     0       1.05    0       0        0           0       0           0;
              2     1       1.0338  0       0.5756  -0.0056      0.217   0.127       0;
              3     2       1       0       0        0           0.024   0.012       0;
              4     2       1       0       0        0           0.076   0.016       0;
              5     1       1.0058  0       0.2456   0.2120      0.942   0.190       0;
              6     2       1       0       0        0           0       0           0;
              7     2       1       0       0        0           0.228   0.109       0;
              8     1       1.0230  0       0.35     0.2678      0.3     0.3         0;
              9     2       1       0       0        0           0       0           0;
              10    2       1       0       0        0           0.058   0.02        0.190;
              11    1       1.0913  0       0.1793   0.2410      0       0           0;
              12    2       1       0       0        0           0.112   0.075       0;
              13    1       1.0883  0       0.1691    0.3169      0       0           0;
              14    2       1       0       0        0           0.062   0.016       0;
              15    2       1       0       0        0           0.082   0.025       0;
              16    2       1       0       0        0           0.035   0.018       0;
              17    2       1       0       0        0           0.09    0.058       0;
              18    2       1       0       0        0           0.032   0.009       0;
              19    2       1       0       0        0           0.095   0.034       0;
              20    2       1       0       0        0           0.022   0.007       0;
              21    2       1       0       0        0           0.175   0.112       0;
              22    2       1       0       0        0           0       0           0;       
              23    2       1       0       0        0           0.032   0.016       0;   
              24    2       1       0       0        0           0.087   0.067       0.04;
              25    2       1       0       0        0           0       0           0;
              26    2       1       0       0        0           0.035   0.023       0;
              27    2       1       0       0        0           0       0           0;
              28    2       1       0       0        0           0       0           0;
              29    2       1       0       0        0           0.024   0.009       0;
              30    2       1       0       0        0           0.106   0.019       0];
Qmin=[0 -0.2 0 0 -0.15  0 0 -0.15 0 0 -0.10 0 -0.15 0 0 0 0 0 0 0 0 0 0 0 0 0 0 0 0 0]';
Qmax=[0  0.6 0 0  0.625 0 0  0.50 0 0  0.40 0  0.45 0 0 0 0 0 0 0 0 0 0 0 0 0 0 0 0 0]';

%disp(busdata30);
nbus=30;

              %lno     Sbus    EBus    R           X          Tap     HLS      
Linedata30 =  [1        1       2       0.0192      0.0575      1       0.0264 ;
               2        1       3       0.0452      0.1852      1       0.0204 ;
               3        2       4       0.0570      0.1737      1       0.0184 ;
               4        3       4       0.0132      0.0379      1       0.0042 ;
               5        2       5       0.0472      0.1983      1       0.0209 ;
               6        2       6       0.0581      0.1763      1       0.0187 ;
               7        4       6       0.0119      0.0414      1       0.0045 ;
               8        5       7       0.0460      0.1160      1       0.0102 ;
               9        6       7       0.0267      0.0820      1       0.0085 ;
               10       6       8       0.0120      0.0420      1       0.0045 ;
               11       6       9       0           0.2080      1.0155  0      ;
               12       6       10      0           0.5560      0.9629  0      ;
               13       9       11      0           0.2080      1       0      ;
               14       9       10      0           0.1100      1       0      ;
               15       4       12      0           0.2560      1.0129  0      ;
               16       12      13      0           0.1400      1       0      ;
               17       12      14      0.1231      0.2559      1       0      ;
               18       12      15      0.0662      0.1304      1       0      ;
               19       12      16      0.0945      0.1987      1       0      ;
               20       14      15      0.2210      0.1997      1       0      ;
               21       16      17      0.0824      0.1932      1       0      ;
               22       15      18      0.1070      0.2185      1       0      ;
               23       18      19      0.0639      0.1292      1       0      ;
               24       19      20      0.0340      0.0680      1       0      ;
               25       10      20      0.0936      0.2090      1       0      ;
               26       10      17      0.0324      0.0845      1       0      ;
               27       10      21      0.0348      0.0749      1       0      ;
               28       10      22      0.0727      0.1499      1       0      ;
               29       21      22      0.0116      0.0236      1       0      ;
               30       15      23      0.1000      0.2020      1       0      ;
               31       22      24      0.1150      0.1790      1       0      ;
               32       23      24      0.1320      0.2700      1       0      ;
               33       24      25      0.1885      0.3292      1       0      ;
               34       25      26      0.2544      0.3800      1       0      ;
               35       25      27      0.1093      0.2087      1       0      ;
               36       28      27      0           0.3960      0.9581  0      ;
               37       27      29      0.2198      0.4153      1       0      ;
               38       27      30      0.3202      0.6027      1       0      ;
               39       29      30      0.2399      0.4533      1       0      ;
               40       8       28      0.0636      0.2000      1       0.0214 ;
               41       6       28      0.0169      0.0599      1       0.0065 ];

%disp(Linedata30);
R=Linedata30(:,4); 
X=Linedata30(:,5);  
z=R+sqrt(-1)*X; 
from_bus = Linedata30(:,2);
to_bus = Linedata30(:,3);